CaseModels/01 14-Bus/_14Bus.json
{"NOpf":{},"base pf":{"bus":{"4":{"source_id":["bus",4],"zone":1,"area":1,"vmin":0.9,"bus_i":4,"index":4,"bus_type":1,"va":-0.1799928212451543,"name":"Bus 4","vm":1.0176716,"vmax":1.1,"base_kv":138.0},"1":{"source_id":["bus",1],"zone":1,"area":1,"vmin":0.9,"bus_i":1,"index":1,"bus_type":3,"va":0.0,"name":"Bus 1","vm":1.0599999,"vmax":1.1,"base_kv":138.0},"12":{"source_id":["bus",12],"zone":1,"area":1,"vmin":0.9,"bus_i":12,"index":12,"bus_type":1,"va":-0.26311732082391537,"name":"Bus 12","vm":1.0551891,"vmax":1.1,"base_kv":138.0},"2":{"source_id":["bus",2],"zone":1,"area":1,"vmin":0.9,"bus_i":2,"index":2,"bus_type":2,"va":-0.08696195500512104,"name":"Bus 2","vm":1.045,"vmax":1.1,"base_kv":138.0},"6":{"source_id":["bus",6],"zone":1,"area":1,"vmin":0.9,"bus_i":6,"index":6,"bus_type":2,"va":-0.2482009865447935,"name":"Bus 6","vm":1.0700001,"vmax":1.1,"base_kv":138.0},"11":{"source_id":["bus",11],"zone":1,"area":1,"vmin":0.9,"bus_i":11,"index":11,"bus_type":1,"va":-0.25814383058743234,"name":"Bus 11","vm":1.0569069,"vmax":1.1,"base_kv":138.0},"13":{"source_id":["bus",13],"zone":1,"area":1,"vmin":0.9,"bus_i":13,"index":13,"bus_type":1,"va":-0.26452552227759446,"name":"Bus 13","vm":1.0503827,"vmax":1.1,"base_kv":138.0},"5":{"source_id":["bus",5],"zone":1,"area":1,"vmin":0.9,"bus_i":5,"index":5,"bus_type":1,"va":-0.15313168045818598,"name":"Bus 5","vm":1.0195146,"vmax":1.1,"base_kv":138.0},"14":{"source_id":["bus",14],"zone":1,"area":1,"vmin":0.9,"bus_i":14,"index":14,"bus_type":1,"va":-0.2798385000825246,"name":"Bus 14","vm":1.0355306,"vmax":1.1,"base_kv":138.0},"7":{"source_id":["bus",7],"zone":1,"area":1,"vmin":0.9,"bus_i":7,"index":7,"bus_type":1,"va":-0.23316827371114862,"name":"Bus 7","vm":1.0615202,"vmax":1.1,"base_kv":138.0},"8":{"source_id":["bus",8],"zone":1,"area":1,"vmin":0.9,"bus_i":8,"index":8,"bus_type":2,"va":-0.2331685006039514,"name":"Bus 8","vm":1.09,"vmax":1.1,"base_kv":138.0},"10":{"source_id":["bus",10],"zone":1,"area":1,"vmin":0.9,"bus_i":10,"index":10,"bus_type":1,"va":-0.26349621435123083,"name":"Bus 10","vm":1.0509856,"vmax":1.1,"base_kv":138.0},"9":{"source_id":["bus",9],"zone":1,"area":1,"vmin":0.9,"bus_i":9,"index":9,"bus_type":1,"va":-0.26072525981759453,"name":"Bus 9","vm":1.0559328,"vmax":1.1,"base_kv":138.0},"3":{"source_id":["bus",3],"zone":1,"area":1,"vmin":0.9,"bus_i":3,"index":3,"bus_type":2,"va":-0.22209361855517648,"name":"Bus 3","vm":1.01,"vmax":1.1,"base_kv":138.0}},"source_type":"matpower","name":"14Bus","dcline":{},"source_version":"2","gen":{"4":{"ncost":2,"qc1max":0.0,"pg":0.4,"model":2,"shutdown":0.0,"startup":0.0,"qc2max":0.0,"ramp_agc":0.0,"qg":0.43560000000000004,"gen_bus":2,"pmax":0.4,"ramp_10":0.0,"vg":1.045,"mbase":60.0,"source_id":["gen",2],"pc2":0.0,"index":4,"cost":[100.0,0.0],"qmax":0.5,"gen_status":1,"qmin":-0.4,"qc1min":0.0,"qc2min":0.0,"pc1":0.0,"ramp_q":0.0,"ramp_30":0.0,"pmin":0.4,"apf":0.0},"1":{"ncost":2,"qc1max":0.0,"pg":0.0,"model":2,"shutdown":0.0,"startup":0.0,"qc2max":0.0,"ramp_agc":0.0,"qg":0.1273,"gen_bus":6,"pmax":0.0,"ramp_10":0.0,"vg":1.07,"mbase":25.0,"source_id":["gen",4],"pc2":0.0,"index":1,"cost":[100.0,0.0],"qmax":0.24,"gen_status":1,"qmin":-0.06,"qc1min":0.0,"qc2min":0.0,"pc1":0.0,"ramp_q":0.0,"ramp_30":0.0,"pmin":0.0,"apf":0.0},"5":{"ncost":2,"qc1max":0.0,"pg":0.0,"model":2,"shutdown":0.0,"startup":0.0,"qc2max":0.0,"ramp_agc":0.0,"qg":0.2507,"gen_bus":3,"pmax":0.0,"ramp_10":0.0,"vg":1.01,"mbase":60.0,"source_id":["gen",3],"pc2":0.0,"index":5,"cost":[100.0,0.0],"qmax":0.4,"gen_status":1,"qmin":0.0,"qc1min":0.0,"qc2min":0.0,"pc1":0.0,"ramp_q":0.0,"ramp_30":0.0,"pmin":0.0,"apf":0.0},"2":{"ncost":2,"qc1max":0.0,"pg":2.3239,"model":2,"shutdown":0.0,"startup":0.0,"qc2max":0.0,"ramp_agc":0.0,"qg":-0.1655,"gen_bus":1,"pmax":100.0,"ramp_10":0.0,"vg":1.06,"mbase":615.0,"source_id":["gen",1],"pc2":0.0,"index":2,"cost":[100.0,0.0],"qmax":0.0,"gen_status":1,"qmin":0.0,"qc1min":0.0,"qc2min":0.0,"pc1":0.0,"ramp_q":0.0,"ramp_30":0.0,"pmin":-100.0,"apf":0.0},"3":{"ncost":2,"qc1max":0.0,"pg":0.0,"model":2,"shutdown":0.0,"startup":0.0,"qc2max":0.0,"ramp_agc":0.0,"qg":0.17620000000000002,"gen_bus":8,"pmax":0.0,"ramp_10":0.0,"vg":1.09,"mbase":25.0,"source_id":["gen",5],"pc2":0.0,"index":3,"cost":[100.0,0.0],"qmax":0.24,"gen_status":1,"qmin":-0.06,"qc1min":0.0,"qc2min":0.0,"pc1":0.0,"ramp_q":0.0,"ramp_30":0.0,"pmin":0.0,"apf":0.0}},"branch":{"4":{"br_r":0.05811,"shift":0.0,"pt":-0.5445,"br_x":0.17632,"g_to":0.0,"g_fr":0.0,"source_id":["branch",4],"b_fr":0.017,"f_bus":2,"br_status":1,"t_bus":4,"b_to":0.017,"index":4,"qf":-0.0155,"angmin":-1.0472,"angmax":1.0472,"qt":0.0302,"transformer":false,"tap":1.0,"pf":0.5613},"1":{"br_r":0.01938,"shift":0.0,"pt":-1.5258,"br_x":0.05917,"g_to":0.0,"g_fr":0.0,"source_id":["branch",1],"b_fr":0.0264,"f_bus":1,"br_status":1,"t_bus":2,"b_to":0.0264,"index":1,"qf":-0.204,"angmin":-1.0472,"angmax":1.0472,"qt":0.2768,"transformer":false,"tap":1.0,"pf":1.5688},"12":{"br_r":0.12291,"shift":0.0,"pt":-0.0771,"br_x":0.25581,"g_to":0.0,"g_fr":0.0,"source_id":["branch",12],"b_fr":0.0,"f_bus":6,"br_status":1,"t_bus":12,"b_to":0.0,"index":12,"qf":0.025,"angmin":-1.0472,"angmax":1.0472,"qt":-0.0235,"transformer":false,"tap":1.0,"pf":0.0779},"20":{"br_r":0.17093,"shift":0.0,"pt":-0.0559,"br_x":0.34802,"g_to":0.0,"g_fr":0.0,"source_id":["branch",20],"b_fr":0.0,"f_bus":13,"br_status":1,"t_bus":14,"b_to":0.0,"index":20,"qf":0.0175,"angmin":-1.0472,"angmax":1.0472,"qt":-0.016399999999999998,"transformer":false,"tap":1.0,"pf":0.0564},"2":{"br_r":0.05403,"shift":0.0,"pt":-0.7275,"br_x":0.22304,"g_to":0.0,"g_fr":0.0,"source_id":["branch",2],"b_fr":0.0246,"f_bus":1,"br_status":1,"t_bus":5,"b_to":0.0246,"index":2,"qf":0.0385,"angmin":-1.0472,"angmax":1.0472,"qt":0.0223,"transformer":false,"tap":1.0,"pf":0.7551000000000001},"6":{"br_r":0.06701,"shift":0.0,"pt":0.2366,"br_x":0.17103,"g_to":0.0,"g_fr":0.0,"source_id":["branch",6],"b_fr":0.0064,"f_bus":3,"br_status":1,"t_bus":4,"b_to":0.0064,"index":6,"qf":0.0447,"angmin":-1.0472,"angmax":1.0472,"qt":-0.0484,"transformer":false,"tap":1.0,"pf":-0.2329},"11":{"br_r":0.09498,"shift":0.0,"pt":-0.073,"br_x":0.1989,"g_to":0.0,"g_fr":0.0,"source_id":["branch",11],"b_fr":0.0,"f_bus":6,"br_status":1,"t_bus":11,"b_to":0.0,"index":11,"qf":0.0356,"angmin":-1.0472,"angmax":1.0472,"qt":-0.0344,"transformer":false,"tap":1.0,"pf":0.0735},"13":{"br_r":0.06615,"shift":0.0,"pt":-0.1754,"br_x":0.13027,"g_to":0.0,"g_fr":0.0,"source_id":["branch",13],"b_fr":0.0,"f_bus":6,"br_status":1,"t_bus":13,"b_to":0.0,"index":13,"qf":0.0722,"angmin":-1.0472,"angmax":1.0472,"qt":-0.068,"transformer":false,"tap":1.0,"pf":0.1775},"5":{"br_r":0.05695,"shift":0.0,"pt":-0.4061,"br_x":0.17388,"g_to":0.0,"g_fr":0.0,"source_id":["branch",5],"b_fr":0.0173,"f_bus":2,"br_status":1,"t_bus":5,"b_to":0.0173,"index":5,"qf":0.011699999999999999,"angmin":-1.0472,"angmax":1.0472,"qt":-0.021,"transformer":false,"tap":1.0,"pf":0.4152},"15":{"br_r":0.0,"shift":0.0,"pt":-0.2807,"br_x":0.11001,"g_to":0.0,"g_fr":0.0,"source_id":["branch",15],"b_fr":0.0,"f_bus":7,"br_status":1,"t_bus":9,"b_to":0.0,"index":15,"qf":0.057800000000000004,"angmin":-1.0472,"angmax":1.0472,"qt":-0.049800000000000004,"transformer":false,"tap":1.0,"pf":0.2807},"16":{"br_r":0.03181,"shift":0.0,"pt":-0.0521,"br_x":0.0845,"g_to":0.0,"g_fr":0.0,"source_id":["branch",16],"b_fr":0.0,"f_bus":9,"br_status":1,"t_bus":10,"b_to":0.0,"index":16,"qf":0.042199999999999994,"angmin":-1.0472,"angmax":1.0472,"qt":-0.04190000000000001,"transformer":false,"tap":1.0,"pf":0.052300000000000006},"14":{"br_r":0.0,"shift":0.0,"pt":-0.0,"br_x":0.17615,"g_to":0.0,"g_fr":0.0,"source_id":["branch",14],"b_fr":0.0,"f_bus":7,"br_status":1,"t_bus":8,"b_to":0.0,"index":14,"qf":-0.1716,"angmin":-1.0472,"angmax":1.0472,"qt":0.17620000000000002,"transformer":false,"tap":1.0,"pf":0.0},"7":{"br_r":0.01335,"shift":0.0,"pt":0.6167,"br_x":0.04211,"g_to":0.0,"g_fr":0.0,"source_id":["branch",7],"b_fr":0.0,"f_bus":4,"br_status":1,"t_bus":5,"b_to":0.0,"index":7,"qf":0.1582,"angmin":-1.0472,"angmax":1.0472,"qt":-0.142,"transformer":false,"tap":1.0,"pf":-0.6115999999999999},"8":{"br_r":0.0,"shift":0.0,"pt":-0.2807,"br_x":0.20912,"g_to":0.0,"g_fr":0.0,"source_id":["branch",8],"b_fr":0.0,"f_bus":4,"br_status":1,"t_bus":7,"b_to":0.0,"index":8,"qf":-0.0968,"angmin":-1.0472,"angmax":1.0472,"qt":0.11380000000000001,"transformer":true,"tap":0.978,"pf":0.2807},"17":{"br_r":0.12711,"shift":0.0,"pt":-0.0931,"br_x":0.27038,"g_to":0.0,"g_fr":0.0,"source_id":["branch",17],"b_fr":0.0,"f_bus":9,"br_status":1,"t_bus":14,"b_to":0.0,"index":17,"qf":0.0361,"angmin":-1.0472,"angmax":1.0472,"qt":-0.0336,"transformer":false,"tap":1.0,"pf":0.0943},"10":{"br_r":0.0,"shift":0.0,"pt":-0.4409,"br_x":0.25202,"g_to":0.0,"g_fr":0.0,"source_id":["branch",10],"b_fr":0.0,"f_bus":5,"br_status":1,"t_bus":6,"b_to":0.0,"index":10,"qf":0.1247,"angmin":-1.0472,"angmax":1.0472,"qt":-0.0805,"transformer":true,"tap":0.932,"pf":0.4409},"19":{"br_r":0.22092,"shift":0.0,"pt":-0.0161,"br_x":0.19988,"g_to":0.0,"g_fr":0.0,"source_id":["branch",19],"b_fr":0.0,"f_bus":12,"br_status":1,"t_bus":13,"b_to":0.0,"index":19,"qf":0.0075,"angmin":-1.0472,"angmax":1.0472,"qt":-0.0075,"transformer":false,"tap":1.0,"pf":0.0161},"9":{"br_r":0.0,"shift":0.0,"pt":-0.16079999999999997,"br_x":0.55618,"g_to":0.0,"g_fr":0.0,"source_id":["branch",9],"b_fr":0.0,"f_bus":4,"br_status":1,"t_bus":9,"b_to":0.0,"index":9,"qf":-0.0043,"angmin":-1.0472,"angmax":1.0472,"qt":0.0173,"transformer":true,"tap":0.969,"pf":0.16079999999999997},"18":{"br_r":0.08205,"shift":0.0,"pt":0.038,"br_x":0.19207,"g_to":0.0,"g_fr":0.0,"source_id":["branch",18],"b_fr":0.0,"f_bus":10,"br_status":1,"t_bus":11,"b_to":0.0,"index":18,"qf":-0.0161,"angmin":-1.0472,"angmax":1.0472,"qt":0.016399999999999998,"transformer":false,"tap":1.0,"pf":-0.0379},"3":{"br_r":0.04699,"shift":0.0,"pt":-0.7091,"br_x":0.19797,"g_to":0.0,"g_fr":0.0,"source_id":["branch",3],"b_fr":0.0219,"f_bus":2,"br_status":1,"t_bus":3,"b_to":0.0219,"index":3,"qf":0.0356,"angmin":-1.0472,"angmax":1.0472,"qt":0.016,"transformer":false,"tap":1.0,"pf":0.7323999999999999}},"storage":{},"switch":{},"baseMVA":100.0,"genfuel":{"4":{"source_id":["genfuel",2],"col_1":"unknown","index":2},"1":{"source_id":["genfuel",4],"col_1":"unknown","index":4},"5":{"source_id":["genfuel",3],"col_1":"unknown","index":3},"2":{"source_id":["genfuel",1],"col_1":"unknown","index":1},"3":{"source_id":["genfuel",5],"col_1":"unknown","index":5}},"gentype":{"4":{"source_id":["gentype",2],"col_1":"UN","index":2},"1":{"source_id":["gentype",4],"col_1":"UN","index":4},"5":{"source_id":["gentype",3],"col_1":"UN","index":3},"2":{"source_id":["gentype",1],"col_1":"UN","index":1},"3":{"source_id":["gentype",5],"col_1":"UN","index":5}},"per_unit":true,"shunt":{"1":{"source_id":["bus",9],"shunt_bus":9,"status":1,"gs":0.0,"bs":0.19,"index":1}},"load":{"4":{"source_id":["bus",5],"load_bus":5,"status":1,"qd":0.016,"pd":0.076,"index":4},"1":{"source_id":["bus",2],"load_bus":2,"status":1,"qd":0.127,"pd":0.217,"index":1},"2":{"source_id":["bus",3],"load_bus":3,"status":1,"qd":0.19,"pd":0.9420000000000001,"index":2},"6":{"source_id":["bus",9],"load_bus":9,"status":1,"qd":0.166,"pd":0.295,"index":6},"11":{"source_id":["bus",14],"load_bus":14,"status":1,"qd":0.05,"pd":0.149,"index":11},"5":{"source_id":["bus",6],"load_bus":6,"status":1,"qd":0.075,"pd":0.11199999999999999,"index":5},"7":{"source_id":["bus",10],"load_bus":10,"status":1,"qd":0.057999999999999996,"pd":0.09,"index":7},"8":{"source_id":["bus",11],"load_bus":11,"status":1,"qd":0.018000000000000002,"pd":0.035,"index":8},"10":{"source_id":["bus",13],"load_bus":13,"status":1,"qd":0.057999999999999996,"pd":0.135,"index":10},"9":{"source_id":["bus",12],"load_bus":12,"status":1,"qd":0.016,"pd":0.061,"index":9},"3":{"source_id":["bus",4],"load_bus":4,"status":1,"qd":-0.039,"pd":0.478,"index":3}}},"system":{"bus":{"4":{"source_id":["bus",4],"zone":1,"area":1,"vmin":0.9,"bus_i":4,"index":4,"bus_type":1,"va":-0.1799928212451543,"name":"Bus 4","vm":1.0176716,"vmax":1.1,"base_kv":138.0},"1":{"source_id":["bus",1],"zone":1,"area":1,"vmin":0.9,"bus_i":1,"index":1,"bus_type":3,"va":0.0,"name":"Bus 1","vm":1.0599999,"vmax":1.1,"base_kv":138.0},"12":{"source_id":["bus",12],"zone":1,"area":1,"vmin":0.9,"bus_i":12,"index":12,"bus_type":1,"va":-0.26311732082391537,"name":"Bus 12","vm":1.0551891,"vmax":1.1,"base_kv":138.0},"2":{"source_id":["bus",2],"zone":1,"area":1,"vmin":0.9,"bus_i":2,"index":2,"bus_type":2,"va":-0.08696195500512104,"name":"Bus 2","vm":1.045,"vmax":1.1,"base_kv":138.0},"6":{"source_id":["bus",6],"zone":1,"area":1,"vmin":0.9,"bus_i":6,"index":6,"bus_type":2,"va":-0.2482009865447935,"name":"Bus 6","vm":1.0700001,"vmax":1.1,"base_kv":138.0},"11":{"source_id":["bus",11],"zone":1,"area":1,"vmin":0.9,"bus_i":11,"index":11,"bus_type":1,"va":-0.25814383058743234,"name":"Bus 11","vm":1.0569069,"vmax":1.1,"base_kv":138.0},"13":{"source_id":["bus",13],"zone":1,"area":1,"vmin":0.9,"bus_i":13,"index":13,"bus_type":1,"va":-0.26452552227759446,"name":"Bus 13","vm":1.0503827,"vmax":1.1,"base_kv":138.0},"5":{"source_id":["bus",5],"zone":1,"area":1,"vmin":0.9,"bus_i":5,"index":5,"bus_type":1,"va":-0.15313168045818598,"name":"Bus 5","vm":1.0195146,"vmax":1.1,"base_kv":138.0},"14":{"source_id":["bus",14],"zone":1,"area":1,"vmin":0.9,"bus_i":14,"index":14,"bus_type":1,"va":-0.2798385000825246,"name":"Bus 14","vm":1.0355306,"vmax":1.1,"base_kv":138.0},"7":{"source_id":["bus",7],"zone":1,"area":1,"vmin":0.9,"bus_i":7,"index":7,"bus_type":1,"va":-0.23316827371114862,"name":"Bus 7","vm":1.0615202,"vmax":1.1,"base_kv":138.0},"8":{"source_id":["bus",8],"zone":1,"area":1,"vmin":0.9,"bus_i":8,"index":8,"bus_type":2,"va":-0.2331685006039514,"name":"Bus 8","vm":1.09,"vmax":1.1,"base_kv":138.0},"10":{"source_id":["bus",10],"zone":1,"area":1,"vmin":0.9,"bus_i":10,"index":10,"bus_type":1,"va":-0.26349621435123083,"name":"Bus 10","vm":1.0509856,"vmax":1.1,"base_kv":138.0},"9":{"source_id":["bus",9],"zone":1,"area":1,"vmin":0.9,"bus_i":9,"index":9,"bus_type":1,"va":-0.26072525981759453,"name":"Bus 9","vm":1.0559328,"vmax":1.1,"base_kv":138.0},"3":{"source_id":["bus",3],"zone":1,"area":1,"vmin":0.9,"bus_i":3,"index":3,"bus_type":2,"va":-0.22209361855517648,"name":"Bus 3","vm":1.01,"vmax":1.1,"base_kv":138.0}},"source_type":"matpower","name":"14Bus","dcline":{},"source_version":"2","gen":{"4":{"ncost":2,"qc1max":0.0,"pg":0.4,"model":2,"shutdown":0.0,"startup":0.0,"qc2max":0.0,"ramp_agc":0.0,"qg":0.43560000000000004,"gen_bus":2,"pmax":0.4,"ramp_10":0.0,"vg":1.045,"mbase":60.0,"source_id":["gen",2],"pc2":0.0,"index":4,"cost":[100.0,0.0],"qmax":0.5,"gen_status":1,"qmin":-0.4,"qc1min":0.0,"qc2min":0.0,"pc1":0.0,"ramp_q":0.0,"ramp_30":0.0,"pmin":0.4,"apf":0.0},"1":{"ncost":2,"qc1max":0.0,"pg":0.0,"model":2,"shutdown":0.0,"startup":0.0,"qc2max":0.0,"ramp_agc":0.0,"qg":0.1273,"gen_bus":6,"pmax":0.0,"ramp_10":0.0,"vg":1.07,"mbase":25.0,"source_id":["gen",4],"pc2":0.0,"index":1,"cost":[100.0,0.0],"qmax":0.24,"gen_status":1,"qmin":-0.06,"qc1min":0.0,"qc2min":0.0,"pc1":0.0,"ramp_q":0.0,"ramp_30":0.0,"pmin":0.0,"apf":0.0},"5":{"ncost":2,"qc1max":0.0,"pg":0.0,"model":2,"shutdown":0.0,"startup":0.0,"qc2max":0.0,"ramp_agc":0.0,"qg":0.2507,"gen_bus":3,"pmax":0.0,"ramp_10":0.0,"vg":1.01,"mbase":60.0,"source_id":["gen",3],"pc2":0.0,"index":5,"cost":[100.0,0.0],"qmax":0.4,"gen_status":1,"qmin":0.0,"qc1min":0.0,"qc2min":0.0,"pc1":0.0,"ramp_q":0.0,"ramp_30":0.0,"pmin":0.0,"apf":0.0},"2":{"ncost":2,"qc1max":0.0,"pg":2.3239,"model":2,"shutdown":0.0,"startup":0.0,"qc2max":0.0,"ramp_agc":0.0,"qg":-0.1655,"gen_bus":1,"pmax":100.0,"ramp_10":0.0,"vg":1.06,"mbase":615.0,"source_id":["gen",1],"pc2":0.0,"index":2,"cost":[100.0,0.0],"qmax":0.0,"gen_status":1,"qmin":0.0,"qc1min":0.0,"qc2min":0.0,"pc1":0.0,"ramp_q":0.0,"ramp_30":0.0,"pmin":-100.0,"apf":0.0},"3":{"ncost":2,"qc1max":0.0,"pg":0.0,"model":2,"shutdown":0.0,"startup":0.0,"qc2max":0.0,"ramp_agc":0.0,"qg":0.17620000000000002,"gen_bus":8,"pmax":0.0,"ramp_10":0.0,"vg":1.09,"mbase":25.0,"source_id":["gen",5],"pc2":0.0,"index":3,"cost":[100.0,0.0],"qmax":0.24,"gen_status":1,"qmin":-0.06,"qc1min":0.0,"qc2min":0.0,"pc1":0.0,"ramp_q":0.0,"ramp_30":0.0,"pmin":0.0,"apf":0.0}},"branch":{"4":{"br_r":0.05811,"shift":0.0,"pt":-0.5445,"br_x":0.17632,"g_to":0.0,"g_fr":0.0,"source_id":["branch",4],"b_fr":0.017,"f_bus":2,"br_status":1,"t_bus":4,"b_to":0.017,"index":4,"qf":-0.0155,"angmin":-1.0472,"angmax":1.0472,"qt":0.0302,"transformer":false,"tap":1.0,"pf":0.5613},"1":{"br_r":0.01938,"shift":0.0,"pt":-1.5258,"br_x":0.05917,"g_to":0.0,"g_fr":0.0,"source_id":["branch",1],"b_fr":0.0264,"f_bus":1,"br_status":1,"t_bus":2,"b_to":0.0264,"index":1,"qf":-0.204,"angmin":-1.0472,"angmax":1.0472,"qt":0.2768,"transformer":false,"tap":1.0,"pf":1.5688},"12":{"br_r":0.12291,"shift":0.0,"pt":-0.0771,"br_x":0.25581,"g_to":0.0,"g_fr":0.0,"source_id":["branch",12],"b_fr":0.0,"f_bus":6,"br_status":1,"t_bus":12,"b_to":0.0,"index":12,"qf":0.025,"angmin":-1.0472,"angmax":1.0472,"qt":-0.0235,"transformer":false,"tap":1.0,"pf":0.0779},"20":{"br_r":0.17093,"shift":0.0,"pt":-0.0559,"br_x":0.34802,"g_to":0.0,"g_fr":0.0,"source_id":["branch",20],"b_fr":0.0,"f_bus":13,"br_status":1,"t_bus":14,"b_to":0.0,"index":20,"qf":0.0175,"angmin":-1.0472,"angmax":1.0472,"qt":-0.016399999999999998,"transformer":false,"tap":1.0,"pf":0.0564},"2":{"br_r":0.05403,"shift":0.0,"pt":-0.7275,"br_x":0.22304,"g_to":0.0,"g_fr":0.0,"source_id":["branch",2],"b_fr":0.0246,"f_bus":1,"br_status":1,"t_bus":5,"b_to":0.0246,"index":2,"qf":0.0385,"angmin":-1.0472,"angmax":1.0472,"qt":0.0223,"transformer":false,"tap":1.0,"pf":0.7551000000000001},"6":{"br_r":0.06701,"shift":0.0,"pt":0.2366,"br_x":0.17103,"g_to":0.0,"g_fr":0.0,"source_id":["branch",6],"b_fr":0.0064,"f_bus":3,"br_status":1,"t_bus":4,"b_to":0.0064,"index":6,"qf":0.0447,"angmin":-1.0472,"angmax":1.0472,"qt":-0.0484,"transformer":false,"tap":1.0,"pf":-0.2329},"11":{"br_r":0.09498,"shift":0.0,"pt":-0.073,"br_x":0.1989,"g_to":0.0,"g_fr":0.0,"source_id":["branch",11],"b_fr":0.0,"f_bus":6,"br_status":1,"t_bus":11,"b_to":0.0,"index":11,"qf":0.0356,"angmin":-1.0472,"angmax":1.0472,"qt":-0.0344,"transformer":false,"tap":1.0,"pf":0.0735},"13":{"br_r":0.06615,"shift":0.0,"pt":-0.1754,"br_x":0.13027,"g_to":0.0,"g_fr":0.0,"source_id":["branch",13],"b_fr":0.0,"f_bus":6,"br_status":1,"t_bus":13,"b_to":0.0,"index":13,"qf":0.0722,"angmin":-1.0472,"angmax":1.0472,"qt":-0.068,"transformer":false,"tap":1.0,"pf":0.1775},"5":{"br_r":0.05695,"shift":0.0,"pt":-0.4061,"br_x":0.17388,"g_to":0.0,"g_fr":0.0,"source_id":["branch",5],"b_fr":0.0173,"f_bus":2,"br_status":1,"t_bus":5,"b_to":0.0173,"index":5,"qf":0.011699999999999999,"angmin":-1.0472,"angmax":1.0472,"qt":-0.021,"transformer":false,"tap":1.0,"pf":0.4152},"15":{"br_r":0.0,"shift":0.0,"pt":-0.2807,"br_x":0.11001,"g_to":0.0,"g_fr":0.0,"source_id":["branch",15],"b_fr":0.0,"f_bus":7,"br_status":1,"t_bus":9,"b_to":0.0,"index":15,"qf":0.057800000000000004,"angmin":-1.0472,"angmax":1.0472,"qt":-0.049800000000000004,"transformer":false,"tap":1.0,"pf":0.2807},"16":{"br_r":0.03181,"shift":0.0,"pt":-0.0521,"br_x":0.0845,"g_to":0.0,"g_fr":0.0,"source_id":["branch",16],"b_fr":0.0,"f_bus":9,"br_status":1,"t_bus":10,"b_to":0.0,"index":16,"qf":0.042199999999999994,"angmin":-1.0472,"angmax":1.0472,"qt":-0.04190000000000001,"transformer":false,"tap":1.0,"pf":0.052300000000000006},"14":{"br_r":0.0,"shift":0.0,"pt":-0.0,"br_x":0.17615,"g_to":0.0,"g_fr":0.0,"source_id":["branch",14],"b_fr":0.0,"f_bus":7,"br_status":1,"t_bus":8,"b_to":0.0,"index":14,"qf":-0.1716,"angmin":-1.0472,"angmax":1.0472,"qt":0.17620000000000002,"transformer":false,"tap":1.0,"pf":0.0},"7":{"br_r":0.01335,"shift":0.0,"pt":0.6167,"br_x":0.04211,"g_to":0.0,"g_fr":0.0,"source_id":["branch",7],"b_fr":0.0,"f_bus":4,"br_status":1,"t_bus":5,"b_to":0.0,"index":7,"qf":0.1582,"angmin":-1.0472,"angmax":1.0472,"qt":-0.142,"transformer":false,"tap":1.0,"pf":-0.6115999999999999},"8":{"br_r":0.0,"shift":0.0,"pt":-0.2807,"br_x":0.20912,"g_to":0.0,"g_fr":0.0,"source_id":["branch",8],"b_fr":0.0,"f_bus":4,"br_status":1,"t_bus":7,"b_to":0.0,"index":8,"qf":-0.0968,"angmin":-1.0472,"angmax":1.0472,"qt":0.11380000000000001,"transformer":true,"tap":0.978,"pf":0.2807},"17":{"br_r":0.12711,"shift":0.0,"pt":-0.0931,"br_x":0.27038,"g_to":0.0,"g_fr":0.0,"source_id":["branch",17],"b_fr":0.0,"f_bus":9,"br_status":1,"t_bus":14,"b_to":0.0,"index":17,"qf":0.0361,"angmin":-1.0472,"angmax":1.0472,"qt":-0.0336,"transformer":false,"tap":1.0,"pf":0.0943},"10":{"br_r":0.0,"shift":0.0,"pt":-0.4409,"br_x":0.25202,"g_to":0.0,"g_fr":0.0,"source_id":["branch",10],"b_fr":0.0,"f_bus":5,"br_status":1,"t_bus":6,"b_to":0.0,"index":10,"qf":0.1247,"angmin":-1.0472,"angmax":1.0472,"qt":-0.0805,"transformer":true,"tap":0.932,"pf":0.4409},"19":{"br_r":0.22092,"shift":0.0,"pt":-0.0161,"br_x":0.19988,"g_to":0.0,"g_fr":0.0,"source_id":["branch",19],"b_fr":0.0,"f_bus":12,"br_status":1,"t_bus":13,"b_to":0.0,"index":19,"qf":0.0075,"angmin":-1.0472,"angmax":1.0472,"qt":-0.0075,"transformer":false,"tap":1.0,"pf":0.0161},"9":{"br_r":0.0,"shift":0.0,"pt":-0.16079999999999997,"br_x":0.55618,"g_to":0.0,"g_fr":0.0,"source_id":["branch",9],"b_fr":0.0,"f_bus":4,"br_status":1,"t_bus":9,"b_to":0.0,"index":9,"qf":-0.0043,"angmin":-1.0472,"angmax":1.0472,"qt":0.0173,"transformer":true,"tap":0.969,"pf":0.16079999999999997},"18":{"br_r":0.08205,"shift":0.0,"pt":0.038,"br_x":0.19207,"g_to":0.0,"g_fr":0.0,"source_id":["branch",18],"b_fr":0.0,"f_bus":10,"br_status":1,"t_bus":11,"b_to":0.0,"index":18,"qf":-0.0161,"angmin":-1.0472,"angmax":1.0472,"qt":0.016399999999999998,"transformer":false,"tap":1.0,"pf":-0.0379},"3":{"br_r":0.04699,"shift":0.0,"pt":-0.7091,"br_x":0.19797,"g_to":0.0,"g_fr":0.0,"source_id":["branch",3],"b_fr":0.0219,"f_bus":2,"br_status":1,"t_bus":3,"b_to":0.0219,"index":3,"qf":0.0356,"angmin":-1.0472,"angmax":1.0472,"qt":0.016,"transformer":false,"tap":1.0,"pf":0.7323999999999999}},"storage":{},"switch":{},"baseMVA":100.0,"genfuel":{"4":{"source_id":["genfuel",2],"col_1":"unknown","index":2},"1":{"source_id":["genfuel",4],"col_1":"unknown","index":4},"5":{"source_id":["genfuel",3],"col_1":"unknown","index":3},"2":{"source_id":["genfuel",1],"col_1":"unknown","index":1},"3":{"source_id":["genfuel",5],"col_1":"unknown","index":5}},"gentype":{"4":{"source_id":["gentype",2],"col_1":"UN","index":2},"1":{"source_id":["gentype",4],"col_1":"UN","index":4},"5":{"source_id":["gentype",3],"col_1":"UN","index":3},"2":{"source_id":["gentype",1],"col_1":"UN","index":1},"3":{"source_id":["gentype",5],"col_1":"UN","index":5}},"per_unit":true,"shunt":{"1":{"source_id":["bus",9],"shunt_bus":9,"status":1,"gs":0.0,"bs":0.19,"index":1}},"load":{"4":{"source_id":["bus",5],"load_bus":5,"status":1,"qd":0.016,"pd":0.076,"index":4},"1":{"source_id":["bus",2],"load_bus":2,"status":1,"qd":0.127,"pd":0.217,"index":1},"2":{"source_id":["bus",3],"load_bus":3,"status":1,"qd":0.19,"pd":0.9420000000000001,"index":2},"6":{"source_id":["bus",9],"load_bus":9,"status":1,"qd":0.166,"pd":0.295,"index":6},"11":{"source_id":["bus",14],"load_bus":14,"status":1,"qd":0.05,"pd":0.149,"index":11},"5":{"source_id":["bus",6],"load_bus":6,"status":1,"qd":0.075,"pd":0.11199999999999999,"index":5},"7":{"source_id":["bus",10],"load_bus":10,"status":1,"qd":0.057999999999999996,"pd":0.09,"index":7},"8":{"source_id":["bus",11],"load_bus":11,"status":1,"qd":0.018000000000000002,"pd":0.035,"index":8},"10":{"source_id":["bus",13],"load_bus":13,"status":1,"qd":0.057999999999999996,"pd":0.135,"index":10},"9":{"source_id":["bus",12],"load_bus":12,"status":1,"qd":0.016,"pd":0.061,"index":9},"3":{"source_id":["bus",4],"load_bus":4,"status":1,"qd":-0.039,"pd":0.478,"index":3}}},"pf":{}}